Version 4
SHEET 1 1780 840
WIRE 656 272 576 272
WIRE 816 272 736 272
WIRE 864 272 816 272
WIRE 992 272 928 272
WIRE 1136 272 992 272
WIRE 1152 272 1136 272
WIRE 1152 288 1152 272
WIRE 816 304 816 272
WIRE 992 320 992 272
WIRE -656 336 -784 336
WIRE -448 336 -656 336
WIRE -656 384 -656 336
WIRE 768 384 704 384
WIRE 96 400 80 400
WIRE 288 400 96 400
WIRE 576 400 576 272
WIRE 576 400 288 400
WIRE 720 400 576 400
WIRE 992 400 992 384
WIRE 1152 400 1152 368
WIRE 1152 400 992 400
WIRE -560 432 -592 432
WIRE -448 432 -448 416
WIRE -448 432 -480 432
WIRE -32 432 -176 432
WIRE 80 432 80 400
WIRE 80 432 -32 432
WIRE 816 432 816 400
WIRE 992 432 992 400
WIRE 288 448 288 400
WIRE 576 448 576 400
WIRE -32 464 -32 432
WIRE -784 480 -784 336
WIRE 512 496 496 496
WIRE 96 512 96 400
WIRE -448 528 -448 432
WIRE 720 528 720 400
WIRE 752 528 720 528
WIRE 896 528 832 528
WIRE 944 528 896 528
WIRE 1072 528 1008 528
WIRE 1120 528 1072 528
WIRE 1264 528 1200 528
WIRE 1360 528 1264 528
WIRE 1376 528 1360 528
WIRE -32 544 -32 528
WIRE 288 544 288 528
WIRE 416 544 288 544
WIRE 496 544 496 496
WIRE 496 544 416 544
WIRE 288 560 288 544
WIRE 576 560 576 544
WIRE 704 560 704 384
WIRE 704 560 576 560
WIRE -656 576 -656 480
WIRE -512 576 -656 576
WIRE -176 576 -176 432
WIRE -176 576 -368 576
WIRE 576 576 576 560
WIRE 896 576 896 528
WIRE 1376 576 1376 528
WIRE -784 592 -784 560
WIRE 1072 592 1072 528
WIRE 1264 592 1264 528
WIRE -656 608 -656 576
WIRE 96 608 96 592
WIRE 128 608 96 608
WIRE 224 608 208 608
WIRE 416 608 416 544
WIRE -368 624 -368 576
WIRE -368 624 -448 624
WIRE 96 624 96 608
WIRE 496 624 496 544
WIRE 512 624 496 624
WIRE 704 656 704 560
WIRE 848 656 704 656
WIRE -224 672 -256 672
WIRE -112 672 -144 672
WIRE -80 672 -112 672
WIRE 32 672 0 672
WIRE 896 704 896 672
WIRE 1024 704 896 704
WIRE 1072 704 1072 656
WIRE 1072 704 1024 704
WIRE 1264 704 1264 656
WIRE 1264 704 1072 704
WIRE 1376 704 1376 656
WIRE 1376 704 1264 704
WIRE -656 720 -656 688
WIRE 96 736 96 720
WIRE 176 736 96 736
WIRE 288 736 288 656
WIRE 288 736 176 736
WIRE 416 736 416 688
WIRE 416 736 288 736
WIRE 576 736 576 672
WIRE 576 736 416 736
WIRE 1024 736 1024 704
WIRE 176 768 176 736
FLAG 816 432 0
FLAG -784 592 0
FLAG 992 432 0
FLAG -256 672 0
FLAG 176 768 0
FLAG 816 272 Vsw
FLAG 1136 272 out+
FLAG -656 720 0
FLAG -32 544 0
FLAG -32 432 Vin
FLAG -784 336 USB
FLAG -112 672 PWM
FLAG 1024 736 0
FLAG 1360 528 out-
SYMBOL voltage -784 464 R0
WINDOW 123 0 0 Left 2
WINDOW 39 0 0 Left 2
SYMATTR InstName usb
SYMATTR Value 5.3
SYMBOL ind 640 288 R270
WINDOW 0 32 56 VTop 2
WINDOW 3 5 56 VBottom 2
SYMATTR InstName L1
SYMATTR Value 50µ
SYMBOL schottky 864 288 R270
WINDOW 0 32 32 VTop 2
WINDOW 3 0 32 VBottom 2
SYMATTR InstName D1
SYMATTR Value MBR735
SYMATTR Description Diode
SYMATTR Type diode
SYMBOL cap 976 320 R0
SYMATTR InstName C1
SYMATTR Value 47µ
SYMBOL voltage -128 672 R90
WINDOW 123 0 0 Left 2
WINDOW 39 0 0 Left 2
WINDOW 3 -58 -168 VRight 2
SYMATTR Value PULSE(0 3.3 0 0.5n 0.5n 1.5u 5u)
SYMATTR InstName V2
SYMBOL res 1136 272 R0
SYMATTR InstName load+
SYMATTR Value 200
SYMBOL irfb4020 768 304 R0
SYMATTR InstName M2
SYMATTR Value IRLHS6242
SYMBOL res -96 688 R270
WINDOW 0 32 56 VTop 2
WINDOW 3 0 56 VBottom 2
SYMATTR InstName R2
SYMATTR Value 1k
SYMBOL npn 32 624 R0
SYMATTR InstName Q1
SYMATTR Value BC546B
SYMBOL npn 224 560 R0
SYMATTR InstName Q2
SYMATTR Value BC546B
SYMBOL res 112 608 R180
WINDOW 0 36 76 Left 2
WINDOW 3 36 40 Left 2
SYMATTR InstName R4
SYMATTR Value 1k
SYMBOL res 272 432 R0
SYMATTR InstName R5
SYMATTR Value 1.5k
SYMBOL res 112 624 R270
WINDOW 0 32 56 VTop 2
WINDOW 3 0 56 VBottom 2
SYMATTR InstName R3
SYMATTR Value 1k
SYMBOL res 400 592 R0
SYMATTR InstName R6
SYMATTR Value 150k
SYMBOL npn 512 448 R0
SYMATTR InstName Q3
SYMATTR Value 2N4401
SYMBOL pnp 512 672 M180
WINDOW 0 80 -14 Left 2
WINDOW 3 52 72 Left 2
SYMATTR InstName Q4
SYMATTR Value 2N4403
SYMBOL pnp -512 624 M180
WINDOW 0 80 -14 Left 2
WINDOW 3 52 72 Left 2
SYMATTR InstName Q5
SYMATTR Value BCW68F
SYMBOL res -672 592 R0
SYMATTR InstName R9
SYMATTR Value 820
SYMBOL pnp -592 480 R180
WINDOW 0 80 -14 Left 2
WINDOW 3 52 72 Left 2
SYMATTR InstName Q6
SYMATTR Value BC556B
SYMBOL res -576 448 R270
WINDOW 0 32 56 VTop 2
WINDOW 3 0 56 VBottom 2
SYMATTR InstName R8
SYMATTR Value 1k
SYMBOL res -464 320 R0
SYMATTR InstName R11
SYMATTR Value 1.3
SYMBOL cap -48 464 R0
SYMATTR InstName C2
SYMATTR Value 47µ
SYMBOL irfb4020 848 576 R0
WINDOW 0 -30 23 VRight 2
WINDOW 3 78 -9 VRight 2
SYMATTR InstName M1
SYMATTR Value IRLHS6242
SYMBOL ind 736 544 R270
WINDOW 0 32 56 VTop 2
WINDOW 3 5 56 VBottom 2
SYMATTR InstName L2
SYMATTR Value 50µ
SYMBOL schottky 1056 592 R0
SYMATTR InstName D2
SYMATTR Value MBR735
SYMATTR Description Diode
SYMATTR Type diode
SYMBOL cap 944 544 R270
WINDOW 0 32 32 VTop 2
WINDOW 3 0 32 VBottom 2
SYMATTR InstName C3
SYMATTR Value 47n
SYMBOL res 1360 560 R0
SYMATTR InstName load-
SYMATTR Value 200
SYMBOL ind 1104 544 R270
WINDOW 0 32 56 VTop 2
WINDOW 3 5 56 VBottom 2
SYMATTR InstName L3
SYMATTR Value 50µ
SYMBOL cap 1248 592 R0
SYMATTR InstName C4
SYMATTR Value 47µ
TEXT 24 264 Left 2 !.tran 0.1
TEXT -896 472 Left 2 ;USB in
TEXT -752 288 Left 2 ;~450-500mA current limiter
TEXT -264 752 Left 2 ;Teensy PWM out
TEXT 112 368 Left 2 ;3.3V to 5V level shifter
TEXT 368 424 Left 2 ;Totem-pole mosfet driver
TEXT 792 200 Left 2 ;Basic boost converter
