Version 4
SHEET 1 880 680
SYMBOL PowerProducts\\LTC3805-5 256 176 R0
SYMATTR InstName U1
